* NGSPICE file created from tt_um_alu7b.ext - technology: sky130A

* Black-box entry subcircuit for sky130_fd_sc_hd__decap_3 abstract view
.subckt sky130_fd_sc_hd__decap_3 VGND VNB VPB VPWR
.ends

* Black-box entry subcircuit for sky130_fd_sc_hd__tapvpwrvgnd_1 abstract view
.subckt sky130_fd_sc_hd__tapvpwrvgnd_1 VGND VPWR
.ends

* Black-box entry subcircuit for sky130_fd_sc_hd__nor2_1 abstract view
.subckt sky130_fd_sc_hd__nor2_1 A B VGND VNB VPB VPWR Y
.ends

* Black-box entry subcircuit for sky130_fd_sc_hd__a31o_1 abstract view
.subckt sky130_fd_sc_hd__a31o_1 A1 A2 A3 B1 VGND VNB VPB VPWR X
.ends

* Black-box entry subcircuit for sky130_fd_sc_hd__or3b_1 abstract view
.subckt sky130_fd_sc_hd__or3b_1 A B C_N VGND VNB VPB VPWR X
.ends

* Black-box entry subcircuit for sky130_fd_sc_hd__dfrtp_4 abstract view
.subckt sky130_fd_sc_hd__dfrtp_4 CLK D RESET_B VGND VNB VPB VPWR Q
.ends

* Black-box entry subcircuit for sky130_fd_sc_hd__fill_1 abstract view
.subckt sky130_fd_sc_hd__fill_1 VGND VNB VPB VPWR
.ends

* Black-box entry subcircuit for sky130_fd_sc_hd__buf_2 abstract view
.subckt sky130_fd_sc_hd__buf_2 A VGND VNB VPB VPWR X
.ends

* Black-box entry subcircuit for sky130_fd_sc_hd__conb_1 abstract view
.subckt sky130_fd_sc_hd__conb_1 VGND VNB VPB VPWR HI LO
.ends

* Black-box entry subcircuit for sky130_fd_sc_hd__fill_2 abstract view
.subckt sky130_fd_sc_hd__fill_2 VGND VNB VPB VPWR
.ends

* Black-box entry subcircuit for sky130_fd_sc_hd__o21ai_1 abstract view
.subckt sky130_fd_sc_hd__o21ai_1 A1 A2 B1 VGND VNB VPB VPWR Y
.ends

* Black-box entry subcircuit for sky130_fd_sc_hd__and2_1 abstract view
.subckt sky130_fd_sc_hd__and2_1 A B VGND VNB VPB VPWR X
.ends

* Black-box entry subcircuit for sky130_fd_sc_hd__clkbuf_4 abstract view
.subckt sky130_fd_sc_hd__clkbuf_4 A VGND VNB VPB VPWR X
.ends

* Black-box entry subcircuit for sky130_fd_sc_hd__or3_1 abstract view
.subckt sky130_fd_sc_hd__or3_1 A B C VGND VNB VPB VPWR X
.ends

* Black-box entry subcircuit for sky130_fd_sc_hd__or4_1 abstract view
.subckt sky130_fd_sc_hd__or4_1 A B C D VGND VNB VPB VPWR X
.ends

* Black-box entry subcircuit for sky130_fd_sc_hd__inv_2 abstract view
.subckt sky130_fd_sc_hd__inv_2 A VGND VNB VPB VPWR Y
.ends

* Black-box entry subcircuit for sky130_fd_sc_hd__o311a_1 abstract view
.subckt sky130_fd_sc_hd__o311a_1 A1 A2 A3 B1 C1 VGND VNB VPB VPWR X
.ends

* Black-box entry subcircuit for sky130_fd_sc_hd__nor3_1 abstract view
.subckt sky130_fd_sc_hd__nor3_1 A B C VGND VNB VPB VPWR Y
.ends

* Black-box entry subcircuit for sky130_fd_sc_hd__or2_1 abstract view
.subckt sky130_fd_sc_hd__or2_1 A B VGND VNB VPB VPWR X
.ends

* Black-box entry subcircuit for sky130_fd_sc_hd__a32o_1 abstract view
.subckt sky130_fd_sc_hd__a32o_1 A1 A2 A3 B1 B2 VGND VNB VPB VPWR X
.ends

* Black-box entry subcircuit for sky130_fd_sc_hd__o31a_1 abstract view
.subckt sky130_fd_sc_hd__o31a_1 A1 A2 A3 B1 VGND VNB VPB VPWR X
.ends

* Black-box entry subcircuit for sky130_fd_sc_hd__mux2_1 abstract view
.subckt sky130_fd_sc_hd__mux2_1 A0 A1 S VGND VNB VPB VPWR X
.ends

* Black-box entry subcircuit for sky130_fd_sc_hd__xor2_1 abstract view
.subckt sky130_fd_sc_hd__xor2_1 A B VGND VNB VPB VPWR X
.ends

* Black-box entry subcircuit for sky130_fd_sc_hd__clkinv_2 abstract view
.subckt sky130_fd_sc_hd__clkinv_2 A VGND VNB VPB VPWR Y
.ends

* Black-box entry subcircuit for sky130_fd_sc_hd__a2bb2o_1 abstract view
.subckt sky130_fd_sc_hd__a2bb2o_1 A1_N A2_N B1 B2 VGND VNB VPB VPWR X
.ends

* Black-box entry subcircuit for sky130_fd_sc_hd__nand2_1 abstract view
.subckt sky130_fd_sc_hd__nand2_1 A B VGND VNB VPB VPWR Y
.ends

* Black-box entry subcircuit for sky130_fd_sc_hd__clkbuf_8 abstract view
.subckt sky130_fd_sc_hd__clkbuf_8 A VGND VNB VPB VPWR X
.ends

* Black-box entry subcircuit for sky130_fd_sc_hd__o211a_1 abstract view
.subckt sky130_fd_sc_hd__o211a_1 A1 A2 B1 C1 VGND VNB VPB VPWR X
.ends

* Black-box entry subcircuit for sky130_fd_sc_hd__or4bb_1 abstract view
.subckt sky130_fd_sc_hd__or4bb_1 A B C_N D_N VGND VNB VPB VPWR X
.ends

* Black-box entry subcircuit for sky130_fd_sc_hd__dfrtp_1 abstract view
.subckt sky130_fd_sc_hd__dfrtp_1 CLK D RESET_B VGND VNB VPB VPWR Q
.ends

* Black-box entry subcircuit for sky130_fd_sc_hd__dfrtp_2 abstract view
.subckt sky130_fd_sc_hd__dfrtp_2 CLK D RESET_B VGND VNB VPB VPWR Q
.ends

* Black-box entry subcircuit for sky130_fd_sc_hd__bufinv_16 abstract view
.subckt sky130_fd_sc_hd__bufinv_16 A VGND VNB VPB VPWR Y
.ends

* Black-box entry subcircuit for sky130_fd_sc_hd__o22a_1 abstract view
.subckt sky130_fd_sc_hd__o22a_1 A1 A2 B1 B2 VGND VNB VPB VPWR X
.ends

* Black-box entry subcircuit for sky130_fd_sc_hd__nand3_1 abstract view
.subckt sky130_fd_sc_hd__nand3_1 A B C VGND VNB VPB VPWR Y
.ends

* Black-box entry subcircuit for sky130_fd_sc_hd__a21oi_1 abstract view
.subckt sky130_fd_sc_hd__a21oi_1 A1 A2 B1 VGND VNB VPB VPWR Y
.ends

* Black-box entry subcircuit for sky130_fd_sc_hd__xnor2_1 abstract view
.subckt sky130_fd_sc_hd__xnor2_1 A B VGND VNB VPB VPWR Y
.ends

* Black-box entry subcircuit for sky130_fd_sc_hd__nor3_4 abstract view
.subckt sky130_fd_sc_hd__nor3_4 A B C VGND VNB VPB VPWR Y
.ends

* Black-box entry subcircuit for sky130_fd_sc_hd__clkbuf_16 abstract view
.subckt sky130_fd_sc_hd__clkbuf_16 A VGND VNB VPB VPWR X
.ends

* Black-box entry subcircuit for sky130_fd_sc_hd__and3_2 abstract view
.subckt sky130_fd_sc_hd__and3_2 A B C VGND VNB VPB VPWR X
.ends

* Black-box entry subcircuit for sky130_fd_sc_hd__a311o_1 abstract view
.subckt sky130_fd_sc_hd__a311o_1 A1 A2 A3 B1 C1 VGND VNB VPB VPWR X
.ends

* Black-box entry subcircuit for sky130_fd_sc_hd__and3_1 abstract view
.subckt sky130_fd_sc_hd__and3_1 A B C VGND VNB VPB VPWR X
.ends

* Black-box entry subcircuit for sky130_fd_sc_hd__nand2b_1 abstract view
.subckt sky130_fd_sc_hd__nand2b_1 A_N B VGND VNB VPB VPWR Y
.ends

* Black-box entry subcircuit for sky130_fd_sc_hd__o21ai_2 abstract view
.subckt sky130_fd_sc_hd__o21ai_2 A1 A2 B1 VGND VNB VPB VPWR Y
.ends

* Black-box entry subcircuit for sky130_fd_sc_hd__o21a_1 abstract view
.subckt sky130_fd_sc_hd__o21a_1 A1 A2 B1 VGND VNB VPB VPWR X
.ends

* Black-box entry subcircuit for sky130_fd_sc_hd__o311ai_2 abstract view
.subckt sky130_fd_sc_hd__o311ai_2 A1 A2 A3 B1 C1 VGND VNB VPB VPWR Y
.ends

* Black-box entry subcircuit for sky130_fd_sc_hd__clkbuf_1 abstract view
.subckt sky130_fd_sc_hd__clkbuf_1 A VGND VNB VPB VPWR X
.ends

* Black-box entry subcircuit for sky130_fd_sc_hd__buf_1 abstract view
.subckt sky130_fd_sc_hd__buf_1 A VGND VNB VPB VPWR X
.ends

* Black-box entry subcircuit for sky130_fd_sc_hd__nand2_4 abstract view
.subckt sky130_fd_sc_hd__nand2_4 A B VGND VNB VPB VPWR Y
.ends

* Black-box entry subcircuit for sky130_fd_sc_hd__or3_2 abstract view
.subckt sky130_fd_sc_hd__or3_2 A B C VGND VNB VPB VPWR X
.ends

* Black-box entry subcircuit for sky130_fd_sc_hd__a211oi_1 abstract view
.subckt sky130_fd_sc_hd__a211oi_1 A1 A2 B1 C1 VGND VNB VPB VPWR Y
.ends

* Black-box entry subcircuit for sky130_fd_sc_hd__o2bb2a_1 abstract view
.subckt sky130_fd_sc_hd__o2bb2a_1 A1_N A2_N B1 B2 VGND VNB VPB VPWR X
.ends

* Black-box entry subcircuit for sky130_fd_sc_hd__dlygate4sd3_1 abstract view
.subckt sky130_fd_sc_hd__dlygate4sd3_1 A VGND VNB VPB VPWR X
.ends

* Black-box entry subcircuit for sky130_fd_sc_hd__or3b_4 abstract view
.subckt sky130_fd_sc_hd__or3b_4 A B C_N VGND VNB VPB VPWR X
.ends

* Black-box entry subcircuit for sky130_fd_sc_hd__nor3_2 abstract view
.subckt sky130_fd_sc_hd__nor3_2 A B C VGND VNB VPB VPWR Y
.ends

* Black-box entry subcircuit for sky130_fd_sc_hd__a211o_1 abstract view
.subckt sky130_fd_sc_hd__a211o_1 A1 A2 B1 C1 VGND VNB VPB VPWR X
.ends

* Black-box entry subcircuit for sky130_fd_sc_hd__a21o_1 abstract view
.subckt sky130_fd_sc_hd__a21o_1 A1 A2 B1 VGND VNB VPB VPWR X
.ends

* Black-box entry subcircuit for sky130_fd_sc_hd__a221o_1 abstract view
.subckt sky130_fd_sc_hd__a221o_1 A1 A2 B1 B2 C1 VGND VNB VPB VPWR X
.ends

* Black-box entry subcircuit for sky130_fd_sc_hd__nor2_2 abstract view
.subckt sky130_fd_sc_hd__nor2_2 A B VGND VNB VPB VPWR Y
.ends

* Black-box entry subcircuit for sky130_fd_sc_hd__a22o_1 abstract view
.subckt sky130_fd_sc_hd__a22o_1 A1 A2 B1 B2 VGND VNB VPB VPWR X
.ends

* Black-box entry subcircuit for sky130_fd_sc_hd__and2b_2 abstract view
.subckt sky130_fd_sc_hd__and2b_2 A_N B VGND VNB VPB VPWR X
.ends

* Black-box entry subcircuit for sky130_fd_sc_hd__clkbuf_2 abstract view
.subckt sky130_fd_sc_hd__clkbuf_2 A VGND VNB VPB VPWR X
.ends

* Black-box entry subcircuit for sky130_fd_sc_hd__o21ba_1 abstract view
.subckt sky130_fd_sc_hd__o21ba_1 A1 A2 B1_N VGND VNB VPB VPWR X
.ends

.subckt tt_um_alu7b VGND VPWR clk ena rst_n ui_in[0] ui_in[1] ui_in[2] ui_in[3] ui_in[4]
+ ui_in[5] ui_in[6] ui_in[7] uio_in[0] uio_in[1] uio_in[2] uio_in[3] uio_in[4] uio_in[5]
+ uio_in[6] uio_in[7] uio_oe[0] uio_oe[1] uio_oe[2] uio_oe[3] uio_oe[4] uio_oe[5]
+ uio_oe[6] uio_oe[7] uio_out[0] uio_out[1] uio_out[2] uio_out[3] uio_out[4] uio_out[5]
+ uio_out[6] uio_out[7] uo_out[0] uo_out[1] uo_out[2] uo_out[3] uo_out[4] uo_out[5]
+ uo_out[6] uo_out[7]
XFILLER_22_100 VGND VGND VPWR VPWR sky130_fd_sc_hd__decap_3
XFILLER_22_133 VGND VGND VPWR VPWR sky130_fd_sc_hd__decap_3
XFILLER_22_144 VGND VGND VPWR VPWR sky130_fd_sc_hd__decap_3
XFILLER_22_177 VGND VGND VPWR VPWR sky130_fd_sc_hd__decap_3
XTAP_TAPCELL_ROW_9_126 VGND VPWR sky130_fd_sc_hd__tapvpwrvgnd_1
XFILLER_13_100 VGND VGND VPWR VPWR sky130_fd_sc_hd__decap_3
XFILLER_26_41 VGND VGND VPWR VPWR sky130_fd_sc_hd__decap_3
XFILLER_26_74 VGND VGND VPWR VPWR sky130_fd_sc_hd__decap_3
XFILLER_26_85 VGND VGND VPWR VPWR sky130_fd_sc_hd__decap_3
X_294_ _307_/A _294_/B VGND VGND VPWR VPWR _296_/B sky130_fd_sc_hd__nor2_1
XFILLER_9_137 VGND VGND VPWR VPWR sky130_fd_sc_hd__decap_3
XFILLER_9_126 VGND VGND VPWR VPWR sky130_fd_sc_hd__decap_3
XFILLER_3_45 VGND VGND VPWR VPWR sky130_fd_sc_hd__decap_3
XFILLER_3_12 VGND VGND VPWR VPWR sky130_fd_sc_hd__decap_3
XFILLER_3_78 VGND VGND VPWR VPWR sky130_fd_sc_hd__decap_3
XTAP_TAPCELL_ROW_14_150 VGND VPWR sky130_fd_sc_hd__tapvpwrvgnd_1
XFILLER_8_192 VGND VGND VPWR VPWR sky130_fd_sc_hd__decap_3
XTAP_TAPCELL_ROW_6_107 VGND VPWR sky130_fd_sc_hd__tapvpwrvgnd_1
XFILLER_27_214 VGND VGND VPWR VPWR sky130_fd_sc_hd__decap_3
XFILLER_27_225 VGND VGND VPWR VPWR sky130_fd_sc_hd__decap_3
XFILLER_27_258 VGND VGND VPWR VPWR sky130_fd_sc_hd__decap_3
XFILLER_10_103 VGND VGND VPWR VPWR sky130_fd_sc_hd__decap_3
XFILLER_12_21 VGND VGND VPWR VPWR sky130_fd_sc_hd__decap_3
XFILLER_12_32 VGND VGND VPWR VPWR sky130_fd_sc_hd__decap_3
XFILLER_6_118 VGND VGND VPWR VPWR sky130_fd_sc_hd__decap_3
XFILLER_2_324 VGND VGND VPWR VPWR sky130_fd_sc_hd__decap_3
XTAP_TAPCELL_ROW_20_186 VGND VPWR sky130_fd_sc_hd__tapvpwrvgnd_1
XPHY_EDGE_ROW_0_Left_34 VGND VGND VPWR VPWR sky130_fd_sc_hd__decap_3
XFILLER_18_203 VGND VGND VPWR VPWR sky130_fd_sc_hd__decap_3
XTAP_TAPCELL_ROW_28_231 VGND VPWR sky130_fd_sc_hd__tapvpwrvgnd_1
XFILLER_26_280 VGND VGND VPWR VPWR sky130_fd_sc_hd__decap_3
XFILLER_33_228 VGND VGND VPWR VPWR sky130_fd_sc_hd__decap_3
XFILLER_33_206 VGND VGND VPWR VPWR sky130_fd_sc_hd__decap_3
X_277_ hold2/A _321_/Q _324_/Q _276_/Y VGND VGND VPWR VPWR _277_/X sky130_fd_sc_hd__a31o_1
XFILLER_5_140 VGND VGND VPWR VPWR sky130_fd_sc_hd__decap_3
XFILLER_5_184 VGND VGND VPWR VPWR sky130_fd_sc_hd__decap_3
XFILLER_17_291 VGND VGND VPWR VPWR sky130_fd_sc_hd__decap_3
XFILLER_24_206 VGND VGND VPWR VPWR sky130_fd_sc_hd__decap_3
XFILLER_24_239 VGND VGND VPWR VPWR sky130_fd_sc_hd__decap_3
XFILLER_32_283 VGND VGND VPWR VPWR sky130_fd_sc_hd__decap_3
XFILLER_23_261 VGND VGND VPWR VPWR sky130_fd_sc_hd__decap_3
XFILLER_30_209 VGND VGND VPWR VPWR sky130_fd_sc_hd__decap_3
XTAP_TAPCELL_ROW_25_212 VGND VPWR sky130_fd_sc_hd__tapvpwrvgnd_1
X_200_ _200_/A _211_/C _338_/Q VGND VGND VPWR VPWR _207_/B sky130_fd_sc_hd__or3b_1
XFILLER_23_42 VGND VGND VPWR VPWR sky130_fd_sc_hd__decap_3
XFILLER_23_75 VGND VGND VPWR VPWR sky130_fd_sc_hd__decap_3
XFILLER_2_121 VGND VGND VPWR VPWR sky130_fd_sc_hd__decap_3
XFILLER_2_165 VGND VGND VPWR VPWR sky130_fd_sc_hd__decap_3
XFILLER_0_24 VGND VGND VPWR VPWR sky130_fd_sc_hd__decap_3
XFILLER_0_35 VGND VGND VPWR VPWR sky130_fd_sc_hd__decap_3
XFILLER_0_57 VGND VGND VPWR VPWR sky130_fd_sc_hd__decap_3
XFILLER_17_9 VGND VGND VPWR VPWR sky130_fd_sc_hd__decap_3
XTAP_TAPCELL_ROW_31_248 VGND VPWR sky130_fd_sc_hd__tapvpwrvgnd_1
X_329_ _329_/CLK _329_/D fanout9/X VGND VGND VPWR VPWR uo_out[2] sky130_fd_sc_hd__dfrtp_4
XFILLER_9_99 VGND VGND VPWR VPWR sky130_fd_sc_hd__decap_3
XFILLER_9_66 VGND VGND VPWR VPWR sky130_fd_sc_hd__decap_3
XFILLER_9_33 VGND VGND VPWR VPWR sky130_fd_sc_hd__decap_3
XFILLER_20_253 VGND VGND VPWR VPWR sky130_fd_sc_hd__decap_3
XFILLER_20_286 VGND VGND VPWR VPWR sky130_fd_sc_hd__decap_3
XFILLER_18_53 VGND VGND VPWR VPWR sky130_fd_sc_hd__decap_3
XFILLER_11_231 VGND VGND VPWR VPWR sky130_fd_sc_hd__decap_3
XFILLER_7_202 VGND VGND VPWR VPWR sky130_fd_sc_hd__decap_3
XFILLER_7_279 VGND VGND VPWR VPWR sky130_fd_sc_hd__fill_1
XFILLER_7_246 VGND VGND VPWR VPWR sky130_fd_sc_hd__decap_3
XFILLER_15_6 VGND VGND VPWR VPWR sky130_fd_sc_hd__decap_3
XFILLER_19_331 VGND VGND VPWR VPWR sky130_fd_sc_hd__fill_1
Xfanout7 input2/X VGND VGND VPWR VPWR _218_/A1 sky130_fd_sc_hd__buf_2
XFILLER_25_323 VGND VGND VPWR VPWR sky130_fd_sc_hd__decap_3
XFILLER_29_128 VGND VGND VPWR VPWR sky130_fd_sc_hd__decap_3
XFILLER_20_21 VGND VGND VPWR VPWR sky130_fd_sc_hd__decap_3
XFILLER_20_32 VGND VGND VPWR VPWR sky130_fd_sc_hd__decap_3
XFILLER_20_65 VGND VGND VPWR VPWR sky130_fd_sc_hd__decap_3
XFILLER_4_227 VGND VGND VPWR VPWR sky130_fd_sc_hd__decap_3
XFILLER_29_30 VGND VGND VPWR VPWR sky130_fd_sc_hd__decap_3
XFILLER_29_63 VGND VGND VPWR VPWR sky130_fd_sc_hd__decap_3
XFILLER_29_96 VGND VGND VPWR VPWR sky130_fd_sc_hd__decap_3
XFILLER_16_301 VGND VGND VPWR VPWR sky130_fd_sc_hd__decap_3
XFILLER_16_312 VGND VGND VPWR VPWR sky130_fd_sc_hd__decap_3
XFILLER_28_150 VGND VGND VPWR VPWR sky130_fd_sc_hd__decap_3
XFILLER_28_183 VGND VGND VPWR VPWR sky130_fd_sc_hd__decap_3
XFILLER_31_326 VGND VGND VPWR VPWR sky130_fd_sc_hd__decap_3
XFILLER_6_12 VGND VGND VPWR VPWR sky130_fd_sc_hd__decap_3
Xtt_um_alu7b_20 VGND VGND VPWR VPWR tt_um_alu7b_20/HI uio_out[2] sky130_fd_sc_hd__conb_1
XFILLER_6_56 VGND VGND VPWR VPWR sky130_fd_sc_hd__decap_3
XFILLER_3_293 VGND VGND VPWR VPWR sky130_fd_sc_hd__decap_3
XFILLER_13_3 VGND VGND VPWR VPWR sky130_fd_sc_hd__decap_3
XFILLER_26_109 VGND VGND VPWR VPWR sky130_fd_sc_hd__decap_3
XFILLER_22_304 VGND VGND VPWR VPWR sky130_fd_sc_hd__decap_3
XFILLER_22_315 VGND VGND VPWR VPWR sky130_fd_sc_hd__decap_3
XFILLER_1_208 VGND VGND VPWR VPWR sky130_fd_sc_hd__decap_3
XFILLER_15_21 VGND VGND VPWR VPWR sky130_fd_sc_hd__decap_3
XFILLER_25_131 VGND VGND VPWR VPWR sky130_fd_sc_hd__decap_3
XFILLER_25_164 VGND VGND VPWR VPWR sky130_fd_sc_hd__decap_3
XFILLER_25_175 VGND VGND VPWR VPWR sky130_fd_sc_hd__decap_3
XFILLER_15_54 VGND VGND VPWR VPWR sky130_fd_sc_hd__fill_2
XFILLER_31_42 VGND VGND VPWR VPWR sky130_fd_sc_hd__decap_3
XFILLER_31_75 VGND VGND VPWR VPWR sky130_fd_sc_hd__decap_3
XFILLER_0_274 VGND VGND VPWR VPWR sky130_fd_sc_hd__decap_3
XFILLER_0_296 VGND VGND VPWR VPWR sky130_fd_sc_hd__decap_3
XFILLER_16_153 VGND VGND VPWR VPWR sky130_fd_sc_hd__decap_3
XFILLER_31_167 VGND VGND VPWR VPWR sky130_fd_sc_hd__fill_1
XFILLER_31_134 VGND VGND VPWR VPWR sky130_fd_sc_hd__decap_3
XFILLER_8_330 VGND VGND VPWR VPWR sky130_fd_sc_hd__fill_2
XFILLER_31_178 VGND VGND VPWR VPWR sky130_fd_sc_hd__decap_3
XFILLER_10_307 VGND VGND VPWR VPWR sky130_fd_sc_hd__fill_1
XFILLER_10_318 VGND VGND VPWR VPWR sky130_fd_sc_hd__decap_3
XFILLER_22_112 VGND VGND VPWR VPWR sky130_fd_sc_hd__decap_3
XFILLER_22_156 VGND VGND VPWR VPWR sky130_fd_sc_hd__decap_3
XFILLER_22_189 VGND VGND VPWR VPWR sky130_fd_sc_hd__decap_3
XTAP_TAPCELL_ROW_17_170 VGND VPWR sky130_fd_sc_hd__tapvpwrvgnd_1
XTAP_TAPCELL_ROW_9_127 VGND VPWR sky130_fd_sc_hd__tapvpwrvgnd_1
XFILLER_13_123 VGND VGND VPWR VPWR sky130_fd_sc_hd__fill_1
XFILLER_13_156 VGND VGND VPWR VPWR sky130_fd_sc_hd__decap_3
XFILLER_26_53 VGND VGND VPWR VPWR sky130_fd_sc_hd__decap_3
XFILLER_26_97 VGND VGND VPWR VPWR sky130_fd_sc_hd__decap_3
XFILLER_9_105 VGND VGND VPWR VPWR sky130_fd_sc_hd__decap_3
X_293_ _235_/X _291_/Y _292_/X _284_/X VGND VGND VPWR VPWR _332_/D sky130_fd_sc_hd__a31o_1
XFILLER_9_149 VGND VGND VPWR VPWR sky130_fd_sc_hd__decap_3
XFILLER_5_311 VGND VGND VPWR VPWR sky130_fd_sc_hd__decap_3
XFILLER_3_57 VGND VGND VPWR VPWR sky130_fd_sc_hd__decap_3
XFILLER_3_24 VGND VGND VPWR VPWR sky130_fd_sc_hd__decap_3
XTAP_TAPCELL_ROW_14_151 VGND VPWR sky130_fd_sc_hd__tapvpwrvgnd_1
XTAP_TAPCELL_ROW_6_108 VGND VPWR sky130_fd_sc_hd__tapvpwrvgnd_1
XFILLER_27_237 VGND VGND VPWR VPWR sky130_fd_sc_hd__decap_3
XFILLER_10_115 VGND VGND VPWR VPWR sky130_fd_sc_hd__fill_2
XFILLER_10_148 VGND VGND VPWR VPWR sky130_fd_sc_hd__decap_3
XFILLER_12_44 VGND VGND VPWR VPWR sky130_fd_sc_hd__decap_3
XFILLER_12_88 VGND VGND VPWR VPWR sky130_fd_sc_hd__fill_1
XTAP_TAPCELL_ROW_20_187 VGND VPWR sky130_fd_sc_hd__tapvpwrvgnd_1
XFILLER_18_215 VGND VGND VPWR VPWR sky130_fd_sc_hd__decap_3
XFILLER_18_248 VGND VGND VPWR VPWR sky130_fd_sc_hd__decap_3
XFILLER_18_259 VGND VGND VPWR VPWR sky130_fd_sc_hd__decap_3
XTAP_TAPCELL_ROW_28_232 VGND VPWR sky130_fd_sc_hd__tapvpwrvgnd_1
XFILLER_33_218 VGND VGND VPWR VPWR sky130_fd_sc_hd__decap_3
XFILLER_26_292 VGND VGND VPWR VPWR sky130_fd_sc_hd__decap_3
X_276_ hold2/A _321_/Q _220_/X VGND VGND VPWR VPWR _276_/Y sky130_fd_sc_hd__o21ai_1
XFILLER_5_196 VGND VGND VPWR VPWR sky130_fd_sc_hd__decap_3
XFILLER_5_152 VGND VGND VPWR VPWR sky130_fd_sc_hd__decap_3
XFILLER_17_281 VGND VGND VPWR VPWR sky130_fd_sc_hd__fill_1
XFILLER_24_218 VGND VGND VPWR VPWR sky130_fd_sc_hd__decap_3
XFILLER_32_295 VGND VGND VPWR VPWR sky130_fd_sc_hd__decap_3
XFILLER_32_262 VGND VGND VPWR VPWR sky130_fd_sc_hd__decap_3
XFILLER_32_251 VGND VGND VPWR VPWR sky130_fd_sc_hd__fill_1
XPHY_EDGE_ROW_12_Right_12 VGND VGND VPWR VPWR sky130_fd_sc_hd__decap_3
XPHY_EDGE_ROW_21_Right_21 VGND VGND VPWR VPWR sky130_fd_sc_hd__decap_3
XFILLER_23_21 VGND VGND VPWR VPWR sky130_fd_sc_hd__decap_3
XFILLER_23_240 VGND VGND VPWR VPWR sky130_fd_sc_hd__decap_3
XFILLER_23_273 VGND VGND VPWR VPWR sky130_fd_sc_hd__decap_3
XFILLER_23_284 VGND VGND VPWR VPWR sky130_fd_sc_hd__decap_3
XFILLER_23_54 VGND VGND VPWR VPWR sky130_fd_sc_hd__fill_2
XTAP_TAPCELL_ROW_25_213 VGND VPWR sky130_fd_sc_hd__tapvpwrvgnd_1
XFILLER_23_87 VGND VGND VPWR VPWR sky130_fd_sc_hd__decap_3
XFILLER_2_100 VGND VGND VPWR VPWR sky130_fd_sc_hd__decap_3
XPHY_EDGE_ROW_30_Right_30 VGND VGND VPWR VPWR sky130_fd_sc_hd__decap_3
XFILLER_2_133 VGND VGND VPWR VPWR sky130_fd_sc_hd__decap_3
XFILLER_2_144 VGND VGND VPWR VPWR sky130_fd_sc_hd__decap_3
XFILLER_2_177 VGND VGND VPWR VPWR sky130_fd_sc_hd__decap_3
XFILLER_0_47 VGND VGND VPWR VPWR sky130_fd_sc_hd__decap_3
XFILLER_0_69 VGND VGND VPWR VPWR sky130_fd_sc_hd__decap_3
XFILLER_9_12 VGND VGND VPWR VPWR sky130_fd_sc_hd__decap_3
XFILLER_14_251 VGND VGND VPWR VPWR sky130_fd_sc_hd__fill_1
X_259_ _313_/Q _259_/B VGND VGND VPWR VPWR _260_/B sky130_fd_sc_hd__and2_1
X_328_ _329_/CLK _328_/D fanout8/X VGND VGND VPWR VPWR uo_out[1] sky130_fd_sc_hd__dfrtp_4
XFILLER_9_78 VGND VGND VPWR VPWR sky130_fd_sc_hd__decap_3
XFILLER_9_45 VGND VGND VPWR VPWR sky130_fd_sc_hd__decap_3
XFILLER_20_265 VGND VGND VPWR VPWR sky130_fd_sc_hd__decap_3
XFILLER_20_298 VGND VGND VPWR VPWR sky130_fd_sc_hd__decap_3
XFILLER_18_21 VGND VGND VPWR VPWR sky130_fd_sc_hd__decap_3
XFILLER_18_32 VGND VGND VPWR VPWR sky130_fd_sc_hd__decap_3
XFILLER_18_65 VGND VGND VPWR VPWR sky130_fd_sc_hd__decap_3
XFILLER_28_321 VGND VGND VPWR VPWR sky130_fd_sc_hd__decap_3
XFILLER_11_254 VGND VGND VPWR VPWR sky130_fd_sc_hd__decap_3
XFILLER_11_276 VGND VGND VPWR VPWR sky130_fd_sc_hd__decap_3
XFILLER_11_287 VGND VGND VPWR VPWR sky130_fd_sc_hd__decap_3
XFILLER_7_225 VGND VGND VPWR VPWR sky130_fd_sc_hd__decap_3
XFILLER_7_214 VGND VGND VPWR VPWR sky130_fd_sc_hd__decap_3
XFILLER_7_258 VGND VGND VPWR VPWR sky130_fd_sc_hd__decap_3
Xfanout8 fanout9/A VGND VGND VPWR VPWR fanout8/X sky130_fd_sc_hd__clkbuf_4
XFILLER_6_280 VGND VGND VPWR VPWR sky130_fd_sc_hd__decap_3
XFILLER_1_90 VGND VGND VPWR VPWR sky130_fd_sc_hd__decap_3
XFILLER_25_302 VGND VGND VPWR VPWR sky130_fd_sc_hd__decap_3
XFILLER_20_44 VGND VGND VPWR VPWR sky130_fd_sc_hd__decap_3
XFILLER_20_77 VGND VGND VPWR VPWR sky130_fd_sc_hd__decap_3
XFILLER_20_88 VGND VGND VPWR VPWR sky130_fd_sc_hd__decap_3
XFILLER_4_239 VGND VGND VPWR VPWR sky130_fd_sc_hd__decap_3
XFILLER_4_206 VGND VGND VPWR VPWR sky130_fd_sc_hd__decap_3
XFILLER_29_42 VGND VGND VPWR VPWR sky130_fd_sc_hd__decap_3
XFILLER_29_75 VGND VGND VPWR VPWR sky130_fd_sc_hd__decap_3
XFILLER_28_162 VGND VGND VPWR VPWR sky130_fd_sc_hd__decap_3
XFILLER_28_195 VGND VGND VPWR VPWR sky130_fd_sc_hd__fill_1
XFILLER_31_305 VGND VGND VPWR VPWR sky130_fd_sc_hd__decap_3
XFILLER_6_35 VGND VGND VPWR VPWR sky130_fd_sc_hd__decap_3
XFILLER_6_24 VGND VGND VPWR VPWR sky130_fd_sc_hd__decap_3
Xtt_um_alu7b_21 VGND VGND VPWR VPWR tt_um_alu7b_21/HI uio_out[3] sky130_fd_sc_hd__conb_1
XFILLER_6_68 VGND VGND VPWR VPWR sky130_fd_sc_hd__decap_3
XFILLER_3_261 VGND VGND VPWR VPWR sky130_fd_sc_hd__decap_3
XFILLER_19_151 VGND VGND VPWR VPWR sky130_fd_sc_hd__decap_3
XFILLER_19_173 VGND VGND VPWR VPWR sky130_fd_sc_hd__decap_3
XFILLER_22_327 VGND VGND VPWR VPWR sky130_fd_sc_hd__decap_3
XPHY_EDGE_ROW_6_Right_6 VGND VGND VPWR VPWR sky130_fd_sc_hd__decap_3
XFILLER_15_33 VGND VGND VPWR VPWR sky130_fd_sc_hd__decap_3
XFILLER_15_66 VGND VGND VPWR VPWR sky130_fd_sc_hd__decap_3
XFILLER_25_143 VGND VGND VPWR VPWR sky130_fd_sc_hd__decap_3
XFILLER_25_187 VGND VGND VPWR VPWR sky130_fd_sc_hd__decap_3
XFILLER_31_54 VGND VGND VPWR VPWR sky130_fd_sc_hd__fill_2
XFILLER_31_21 VGND VGND VPWR VPWR sky130_fd_sc_hd__decap_3
XFILLER_0_231 VGND VGND VPWR VPWR sky130_fd_sc_hd__decap_3
XFILLER_0_253 VGND VGND VPWR VPWR sky130_fd_sc_hd__decap_3
XFILLER_31_87 VGND VGND VPWR VPWR sky130_fd_sc_hd__decap_3
XFILLER_16_176 VGND VGND VPWR VPWR sky130_fd_sc_hd__fill_1
XFILLER_31_102 VGND VGND VPWR VPWR sky130_fd_sc_hd__decap_3
XFILLER_31_113 VGND VGND VPWR VPWR sky130_fd_sc_hd__decap_3
XFILLER_31_146 VGND VGND VPWR VPWR sky130_fd_sc_hd__decap_3
XFILLER_22_124 VGND VGND VPWR VPWR sky130_fd_sc_hd__decap_3
XTAP_TAPCELL_ROW_17_171 VGND VPWR sky130_fd_sc_hd__tapvpwrvgnd_1
XFILLER_22_168 VGND VGND VPWR VPWR sky130_fd_sc_hd__decap_3
XFILLER_7_9 VGND VGND VPWR VPWR sky130_fd_sc_hd__decap_3
XFILLER_26_21 VGND VGND VPWR VPWR sky130_fd_sc_hd__decap_3
XFILLER_26_32 VGND VGND VPWR VPWR sky130_fd_sc_hd__decap_3
XFILLER_26_65 VGND VGND VPWR VPWR sky130_fd_sc_hd__decap_3
X_292_ _292_/A _292_/B _292_/C VGND VGND VPWR VPWR _292_/X sky130_fd_sc_hd__or3_1
XFILLER_21_190 VGND VGND VPWR VPWR sky130_fd_sc_hd__decap_3
XFILLER_5_323 VGND VGND VPWR VPWR sky130_fd_sc_hd__decap_3
XFILLER_3_69 VGND VGND VPWR VPWR sky130_fd_sc_hd__decap_3
XFILLER_3_36 VGND VGND VPWR VPWR sky130_fd_sc_hd__decap_3
XFILLER_29_290 VGND VGND VPWR VPWR sky130_fd_sc_hd__decap_3
XTAP_TAPCELL_ROW_14_152 VGND VPWR sky130_fd_sc_hd__tapvpwrvgnd_1
XFILLER_8_150 VGND VGND VPWR VPWR sky130_fd_sc_hd__decap_3
XTAP_TAPCELL_ROW_3_90 VGND VPWR sky130_fd_sc_hd__tapvpwrvgnd_1
XTAP_TAPCELL_ROW_6_109 VGND VPWR sky130_fd_sc_hd__tapvpwrvgnd_1
XFILLER_8_183 VGND VGND VPWR VPWR sky130_fd_sc_hd__decap_3
XFILLER_27_205 VGND VGND VPWR VPWR sky130_fd_sc_hd__decap_3
XFILLER_27_249 VGND VGND VPWR VPWR sky130_fd_sc_hd__decap_3
XFILLER_12_12 VGND VGND VPWR VPWR sky130_fd_sc_hd__decap_3
XFILLER_12_56 VGND VGND VPWR VPWR sky130_fd_sc_hd__decap_3
XFILLER_2_304 VGND VGND VPWR VPWR sky130_fd_sc_hd__decap_3
XTAP_TAPCELL_ROW_20_188 VGND VPWR sky130_fd_sc_hd__tapvpwrvgnd_1
XFILLER_6_109 VGND VGND VPWR VPWR sky130_fd_sc_hd__decap_3
XFILLER_2_315 VGND VGND VPWR VPWR sky130_fd_sc_hd__decap_3
XFILLER_5_6 VGND VGND VPWR VPWR sky130_fd_sc_hd__decap_3
XFILLER_26_271 VGND VGND VPWR VPWR sky130_fd_sc_hd__decap_3
X_275_ _272_/Y _273_/X _235_/C VGND VGND VPWR VPWR _275_/Y sky130_fd_sc_hd__o21ai_1
XFILLER_5_175 VGND VGND VPWR VPWR sky130_fd_sc_hd__decap_3
XFILLER_5_164 VGND VGND VPWR VPWR sky130_fd_sc_hd__decap_3
XFILLER_5_131 VGND VGND VPWR VPWR sky130_fd_sc_hd__decap_3
XFILLER_32_274 VGND VGND VPWR VPWR sky130_fd_sc_hd__decap_3
XFILLER_32_230 VGND VGND VPWR VPWR sky130_fd_sc_hd__decap_3
XTAP_TAPCELL_ROW_25_214 VGND VPWR sky130_fd_sc_hd__tapvpwrvgnd_1
XFILLER_23_252 VGND VGND VPWR VPWR sky130_fd_sc_hd__decap_3
XFILLER_23_296 VGND VGND VPWR VPWR sky130_fd_sc_hd__decap_3
XFILLER_23_33 VGND VGND VPWR VPWR sky130_fd_sc_hd__decap_3
XFILLER_23_66 VGND VGND VPWR VPWR sky130_fd_sc_hd__decap_3
XFILLER_23_99 VGND VGND VPWR VPWR sky130_fd_sc_hd__decap_3
XFILLER_2_112 VGND VGND VPWR VPWR sky130_fd_sc_hd__decap_3
XFILLER_2_156 VGND VGND VPWR VPWR sky130_fd_sc_hd__decap_3
XFILLER_3_3 VGND VGND VPWR VPWR sky130_fd_sc_hd__decap_3
XFILLER_0_15 VGND VGND VPWR VPWR sky130_fd_sc_hd__decap_3
XFILLER_2_189 VGND VGND VPWR VPWR sky130_fd_sc_hd__decap_3
XFILLER_9_24 VGND VGND VPWR VPWR sky130_fd_sc_hd__decap_3
X_189_ _200_/A _205_/A _335_/D _191_/B VGND VGND VPWR VPWR _189_/X sky130_fd_sc_hd__or4_1
X_258_ _258_/A VGND VGND VPWR VPWR _260_/A sky130_fd_sc_hd__inv_2
X_327_ _339_/CLK _327_/D fanout8/X VGND VGND VPWR VPWR uo_out[0] sky130_fd_sc_hd__dfrtp_4
XFILLER_9_57 VGND VGND VPWR VPWR sky130_fd_sc_hd__decap_3
XFILLER_20_200 VGND VGND VPWR VPWR sky130_fd_sc_hd__decap_3
XFILLER_20_244 VGND VGND VPWR VPWR sky130_fd_sc_hd__decap_3
XFILLER_20_277 VGND VGND VPWR VPWR sky130_fd_sc_hd__decap_3
XFILLER_18_44 VGND VGND VPWR VPWR sky130_fd_sc_hd__decap_3
XFILLER_18_77 VGND VGND VPWR VPWR sky130_fd_sc_hd__decap_3
XFILLER_11_200 VGND VGND VPWR VPWR sky130_fd_sc_hd__decap_3
XFILLER_11_299 VGND VGND VPWR VPWR sky130_fd_sc_hd__decap_3
XFILLER_7_237 VGND VGND VPWR VPWR sky130_fd_sc_hd__decap_3
XFILLER_19_311 VGND VGND VPWR VPWR sky130_fd_sc_hd__fill_1
XFILLER_19_322 VGND VGND VPWR VPWR sky130_fd_sc_hd__decap_3
XFILLER_22_9 VGND VGND VPWR VPWR sky130_fd_sc_hd__decap_3
Xfanout9 fanout9/A VGND VGND VPWR VPWR fanout9/X sky130_fd_sc_hd__buf_2
XFILLER_6_292 VGND VGND VPWR VPWR sky130_fd_sc_hd__decap_3
XFILLER_29_108 VGND VGND VPWR VPWR sky130_fd_sc_hd__decap_3
XFILLER_29_119 VGND VGND VPWR VPWR sky130_fd_sc_hd__decap_3
XFILLER_25_314 VGND VGND VPWR VPWR sky130_fd_sc_hd__decap_3
XFILLER_20_12 VGND VGND VPWR VPWR sky130_fd_sc_hd__decap_3
XFILLER_20_56 VGND VGND VPWR VPWR sky130_fd_sc_hd__decap_3
XFILLER_4_218 VGND VGND VPWR VPWR sky130_fd_sc_hd__decap_3
XFILLER_28_130 VGND VGND VPWR VPWR sky130_fd_sc_hd__decap_3
XFILLER_28_141 VGND VGND VPWR VPWR sky130_fd_sc_hd__decap_3
XFILLER_28_174 VGND VGND VPWR VPWR sky130_fd_sc_hd__decap_3
XFILLER_29_21 VGND VGND VPWR VPWR sky130_fd_sc_hd__decap_3
XFILLER_29_54 VGND VGND VPWR VPWR sky130_fd_sc_hd__fill_2
XFILLER_29_87 VGND VGND VPWR VPWR sky130_fd_sc_hd__decap_3
XFILLER_16_325 VGND VGND VPWR VPWR sky130_fd_sc_hd__decap_3
XFILLER_31_317 VGND VGND VPWR VPWR sky130_fd_sc_hd__decap_3
Xtt_um_alu7b_22 VGND VGND VPWR VPWR tt_um_alu7b_22/HI uio_out[4] sky130_fd_sc_hd__conb_1
XFILLER_6_47 VGND VGND VPWR VPWR sky130_fd_sc_hd__decap_3
XFILLER_20_6 VGND VGND VPWR VPWR sky130_fd_sc_hd__decap_3
XFILLER_3_284 VGND VGND VPWR VPWR sky130_fd_sc_hd__decap_3
XFILLER_3_273 VGND VGND VPWR VPWR sky130_fd_sc_hd__decap_3
XFILLER_3_240 VGND VGND VPWR VPWR sky130_fd_sc_hd__decap_3
XFILLER_19_163 VGND VGND VPWR VPWR sky130_fd_sc_hd__decap_3
XFILLER_13_306 VGND VGND VPWR VPWR sky130_fd_sc_hd__decap_3
XFILLER_15_12 VGND VGND VPWR VPWR sky130_fd_sc_hd__decap_3
XFILLER_15_45 VGND VGND VPWR VPWR sky130_fd_sc_hd__decap_3
XFILLER_25_111 VGND VGND VPWR VPWR sky130_fd_sc_hd__fill_1
XFILLER_25_122 VGND VGND VPWR VPWR sky130_fd_sc_hd__decap_3
XFILLER_25_155 VGND VGND VPWR VPWR sky130_fd_sc_hd__decap_3
XFILLER_25_199 VGND VGND VPWR VPWR sky130_fd_sc_hd__decap_3
XFILLER_31_99 VGND VGND VPWR VPWR sky130_fd_sc_hd__decap_3
XFILLER_31_66 VGND VGND VPWR VPWR sky130_fd_sc_hd__decap_3
XFILLER_31_33 VGND VGND VPWR VPWR sky130_fd_sc_hd__decap_3
XFILLER_0_221 VGND VGND VPWR VPWR sky130_fd_sc_hd__decap_3
XFILLER_0_243 VGND VGND VPWR VPWR sky130_fd_sc_hd__decap_3
XFILLER_0_265 VGND VGND VPWR VPWR sky130_fd_sc_hd__decap_3
XFILLER_0_287 VGND VGND VPWR VPWR sky130_fd_sc_hd__decap_3
XFILLER_16_100 VGND VGND VPWR VPWR sky130_fd_sc_hd__decap_3
XFILLER_16_188 VGND VGND VPWR VPWR sky130_fd_sc_hd__decap_3
XFILLER_31_125 VGND VGND VPWR VPWR sky130_fd_sc_hd__decap_3
XFILLER_8_321 VGND VGND VPWR VPWR sky130_fd_sc_hd__decap_3
XFILLER_31_169 VGND VGND VPWR VPWR sky130_fd_sc_hd__decap_3
XFILLER_31_158 VGND VGND VPWR VPWR sky130_fd_sc_hd__decap_3
XFILLER_22_103 VGND VGND VPWR VPWR sky130_fd_sc_hd__decap_3
XFILLER_22_136 VGND VGND VPWR VPWR sky130_fd_sc_hd__decap_3
XFILLER_22_147 VGND VGND VPWR VPWR sky130_fd_sc_hd__decap_3
XFILLER_10_309 VGND VGND VPWR VPWR sky130_fd_sc_hd__decap_3
XFILLER_30_180 VGND VGND VPWR VPWR sky130_fd_sc_hd__decap_3
XFILLER_7_90 VGND VGND VPWR VPWR sky130_fd_sc_hd__decap_3
XFILLER_26_44 VGND VGND VPWR VPWR sky130_fd_sc_hd__decap_3
XFILLER_13_103 VGND VGND VPWR VPWR sky130_fd_sc_hd__decap_3
XFILLER_13_136 VGND VGND VPWR VPWR sky130_fd_sc_hd__decap_3
XFILLER_26_77 VGND VGND VPWR VPWR sky130_fd_sc_hd__decap_3
XFILLER_26_88 VGND VGND VPWR VPWR sky130_fd_sc_hd__decap_3
X_291_ _292_/A _292_/B _292_/C VGND VGND VPWR VPWR _291_/Y sky130_fd_sc_hd__o21ai_1
XFILLER_5_302 VGND VGND VPWR VPWR sky130_fd_sc_hd__decap_3
XFILLER_3_48 VGND VGND VPWR VPWR sky130_fd_sc_hd__decap_3
XFILLER_3_15 VGND VGND VPWR VPWR sky130_fd_sc_hd__decap_3
XFILLER_12_191 VGND VGND VPWR VPWR sky130_fd_sc_hd__decap_3
XTAP_TAPCELL_ROW_14_153 VGND VPWR sky130_fd_sc_hd__tapvpwrvgnd_1
XFILLER_8_195 VGND VGND VPWR VPWR sky130_fd_sc_hd__fill_1
XTAP_TAPCELL_ROW_3_91 VGND VPWR sky130_fd_sc_hd__tapvpwrvgnd_1
XFILLER_27_217 VGND VGND VPWR VPWR sky130_fd_sc_hd__decap_3
XFILLER_27_228 VGND VGND VPWR VPWR sky130_fd_sc_hd__decap_3
XPHY_EDGE_ROW_19_Left_53 VGND VGND VPWR VPWR sky130_fd_sc_hd__decap_3
XFILLER_10_106 VGND VGND VPWR VPWR sky130_fd_sc_hd__decap_3
XFILLER_10_139 VGND VGND VPWR VPWR sky130_fd_sc_hd__fill_1