*SPEF "ieee 1481-1999"
*DESIGN "tt_um_alu7b"
*DATE "17:20:13 Tuesday April 21, 2026"
*VENDOR "The OpenROAD Project"
*PROGRAM "OpenROAD"
*VERSION "v2.0-16235-gedf00dff9"
*DESIGN_FLOW "NAME_SCOPE LOCAL" "PIN_CAP NONE"
*DIVIDER /
*DELIMITER :
*BUS_DELIMITER []
*T_UNIT 1 NS
*C_UNIT 1 PF
*R_UNIT 1 OHM
*L_UNIT 1 HENRY

*NAME_MAP
*3 clk
*4 ena
*5 rst_n
*6 ui_in[0]
*7 ui_in[1]
*8 ui_in[2]
*9 ui_in[3]
*10 ui_in[4]
*11 ui_in[5]
*12 ui_in[6]
*13 ui_in[7]
*14 uio_in[0]
*15 uio_in[1]
*16 uio_in[2]
*17 uio_in[3]
*18 uio_in[4]
*19 uio_in[5]
*20 uio_in[6]
*21 uio_in[7]
*22 net26
*23 net12
*24 net13
*25 net14
*26 net15
*27 net16
*28 net17
*29 net18
*30 uio_out[0]
*31 net19
*32 net20
*33 net21
*34 net22
*35 net23
*36 net24
*37 net25
*38 uo_out[0]
*39 uo_out[1]
*40 uo_out[2]
*41 uo_out[3]
*42 uo_out[4]
*43 uo_out[5]
*44 uo_out[6]
*45 uo_out[7]
*46 _000_
*47 _001_
*48 _002_
*49 _003_
*50 _004_
*51 _005_
*52 _006_
*53 _007_
*54 _008_
*55 _009_
*56 _010_
*57 _011_
*58 _012_
*59 _013_
*60 _014_
*61 _015_
*62 _016_
*63 _017_
*64 _018_
*65 _019_
*66 _020_
*67 _021_
*68 _022_
*69 _023_
*70 _024_
*71 _025_
*72 _026_
*73 _027_
*74 _028_
*75 _029_
*76 _030_
*77 _031_
*78 _032_
*79 _033_
*80 _034_
*81 _035_
*82 _036_
*83 _037_
*84 _038_
*85 _039_
*86 _040_
*87 _041_
*88 _042_
*89 _043_
*90 _044_
*91 _045_
*92 _046_
*93 _047_
*94 _048_
*95 _049_
*96 _050_
*97 _051_
*98 _052_
*99 _053_
*100 _054_
*101 _055_
*102 _056_
*103 _057_
*104 _058_
*105 _059_
*106 _060_
*107 _061_
*108 _062_
*109 _063_
*110 _064_
*111 _065_
*112 _066_
*113 _067_
*114 _068_
*115 _069_
*116 _070_
*117 _071_
*118 _072_
*119 _073_
*120 _074_
*121 _075_
*122 _076_
*123 _077_
*124 _078_
*125 _079_
*126 _080_
*127 _081_
*128 _082_
*129 _083_
*130 _084_
*131 _085_
*132 _086_
*133 _087_
*134 _088_
*135 _089_
*136 _090_
*137 _091_
*138 _092_
*139 _093_
*140 _094_
*141 _095_
*142 _096_
*143 _097_
*144 _098_
*145 _099_
*146 _100_
*147 _101_
*148 _102_
*149 _103_
*150 _104_
*151 _105_
*152 _106_
*153 _107_
*154 _108_
*155 _109_
*156 _110_
*157 _111_
*158 _112_
*159 _113_
*160 _114_
*161 _115_
*162 _116_
*163 _117_
*164 _118_
*165 _119_
*166 _120_
*167 _121_
*168 _122_
*169 _123_
*170 _124_
*171 _125_
*172 _126_
*173 _127_
*174 _128_
*175 _129_
*176 _130_
*177 _131_
*178 _132_
*179 _133_
*180 _134_
*181 _135_
*182 _136_
*183 _137_
*184 _138_
*185 _139_
*186 _140_
*187 _141_
*188 _142_
*189 _143_
*190 _144_
*191 _145_
*192 _146_
*193 _147_
*194 _148_
*195 _149_
*196 _150_
*197 _151_
*198 _152_
*199 _153_
*200 _154_
*201 alu0\.A\[0\]
*202 alu0\.A\[1\]
*203 alu0\.A\[2\]
*204 alu0\.A\[3\]
*205 alu0\.A\[4\]
*206 alu0\.A\[5\]
*207 alu0\.A\[6\]
*208 alu0\.B\[0\]
*209 alu0\.B\[1\]
*210 alu0\.B\[2\]
*211 alu0\.B\[3\]
*212 alu0\.B\[4\]
*213 alu0\.B\[5\]
*214 alu0\.B\[6\]
*215 alu0\.op\[0\]
*216 alu0\.op\[1\]
*217 alu0\.op\[2\]
*218 clknet_0_clk
*219 clknet_2_0__leaf_clk
*220 clknet_2_1__leaf_clk
*221 clknet_2_2__leaf_clk
*222 clknet_2_3__leaf_clk
*223 count\[0\]
*224 count\[1\]
*225 count\[2\]
*226 count\[3\]
*227 count\[4\]
*228 done
*229 net1
*230 net10
*231 net11
*232 net2
*233 net27
*234 net28
*235 net3
*236 net4
*237 net5
*238 net6
*239 net7
*240 net8
*241 net9
*242 FILLER_0_100
*243 FILLER_0_103
*244 FILLER_0_106
*245 FILLER_0_109
*246 FILLER_0_113
*247 FILLER_0_116
*248 FILLER_0_119
*249 FILLER_0_12
*250 FILLER_0_122
*251 FILLER_0_125
*252 FILLER_0_128
*253 FILLER_0_131
*254 FILLER_0_134
*255 FILLER_0_137
*256 FILLER_0_141
*257 FILLER_0_144
*258 FILLER_0_147
*259 FILLER_0_15
*260 FILLER_0_152
*261 FILLER_0_155
*262 FILLER_0_158
*263 FILLER_0_161
*264 FILLER_0_164
*265 FILLER_0_167
*266 FILLER_0_169
*267 FILLER_0_172
*268 FILLER_0_175
*269 FILLER_0_18
*270 FILLER_0_180
*271 FILLER_0_183
*272 FILLER_0_187
*273 FILLER_0_190
*274 FILLER_0_194
*275 FILLER_0_197
*276 FILLER_0_200
*277 FILLER_0_203
*278 FILLER_0_206
*279 FILLER_0_209
*280 FILLER_0_21
*281 FILLER_0_212
*282 FILLER_0_215
*283 FILLER_0_218
*284 FILLER_0_221
*285 FILLER_0_225
*286 FILLER_0_228
*287 FILLER_0_231
*288 FILLER_0_234
*289 FILLER_0_237
*290 FILLER_0_24
*291 FILLER_0_240
*292 FILLER_0_243
*293 FILLER_0_246
*294 FILLER_0_249
*295 FILLER_0_253
*296 FILLER_0_256
*297 FILLER_0_259
*298 FILLER_0_262
*299 FILLER_0_265
*300 FILLER_0_268
*301 FILLER_0_27
*302 FILLER_0_271
*303 FILLER_0_274
*304 FILLER_0_277
*305 FILLER_0_281
*306 FILLER_0_284
*307 FILLER_0_287
*308 FILLER_0_29
*309 FILLER_0_290
*310 FILLER_0_293
*311 FILLER_0_296
*312 FILLER_0_299
*313 FILLER_0_3
*314 FILLER_0_302
*315 FILLER_0_305
*316 FILLER_0_309
*317 FILLER_0_312
*318 FILLER_0_315
*319 FILLER_0_318
*320 FILLER_0_32
*321 FILLER_0_321
*322 FILLER_0_324
*323 FILLER_0_327
*324 FILLER_0_330
*325 FILLER_0_35
*326 FILLER_0_38
*327 FILLER_0_41
*328 FILLER_0_44
*329 FILLER_0_47
*330 FILLER_0_50
*331 FILLER_0_53
*332 FILLER_0_57
*333 FILLER_0_6
*334 FILLER_0_60
*335 FILLER_0_63
*336 FILLER_0_66
*337 FILLER_0_69
*338 FILLER_0_72
*339 FILLER_0_75
*340 FILLER_0_78
*341 FILLER_0_81
*342 FILLER_0_85
*343 FILLER_0_88
*344 FILLER_0_9
*345 FILLER_0_91
*346 FILLER_0_94
*347 FILLER_0_97
*348 FILLER_10_100
*349 FILLER_10_103
*350 FILLER_10_106
*351 FILLER_10_109
*352 FILLER_10_112
*353 FILLER_10_115
*354 FILLER_10_12
*355 FILLER_10_139
*356 FILLER_10_145
*357 FILLER_10_148
*358 FILLER_10_15
*359 FILLER_10_151
*360 FILLER_10_154
*361 FILLER_10_157
*362 FILLER_10_18
*363 FILLER_10_184
*364 FILLER_10_191
*365 FILLER_10_194
*366 FILLER_10_197
*367 FILLER_10_200
*368 FILLER_10_203
*369 FILLER_10_206
*370 FILLER_10_209
*371 FILLER_10_21
*372 FILLER_10_222
*373 FILLER_10_225
*374 FILLER_10_228
*375 FILLER_10_231
*376 FILLER_10_234
*377 FILLER_10_24
*378 FILLER_10_251
*379 FILLER_10_266
*380 FILLER_10_269
*381 FILLER_10_27
*382 FILLER_10_272
*383 FILLER_10_275
*384 FILLER_10_278
*385 FILLER_10_281
*386 FILLER_10_284
*387 FILLER_10_287
*388 FILLER_10_29
*389 FILLER_10_290
*390 FILLER_10_295
*391 FILLER_10_298
*392 FILLER_10_3
*393 FILLER_10_301
*394 FILLER_10_304
*395 FILLER_10_307
*396 FILLER_10_309
*397 FILLER_10_312
*398 FILLER_10_315
*399 FILLER_10_318
*400 FILLER_10_32
*401 FILLER_10_321
*402 FILLER_10_324
*403 FILLER_10_327
*404 FILLER_10_330
*405 FILLER_10_35
*406 FILLER_10_38
*407 FILLER_10_41
*408 FILLER_10_44
*409 FILLER_10_47
*410 FILLER_10_50
*411 FILLER_10_53
*412 FILLER_10_56
*413 FILLER_10_59
*414 FILLER_10_6
*415 FILLER_10_62
*416 FILLER_10_65
*417 FILLER_10_68
*418 FILLER_10_71
*419 FILLER_10_74
*420 FILLER_10_77
*421 FILLER_10_80
*422 FILLER_10_83
*423 FILLER_10_85
*424 FILLER_10_88
*425 FILLER_10_9
*426 FILLER_10_91
*427 FILLER_10_94
*428 FILLER_10_97
*429 FILLER_11_12
*430 FILLER_11_121
*431 FILLER_11_15
*432 FILLER_11_154
*433 FILLER_11_157
*434 FILLER_11_160
*435 FILLER_11_176
*436 FILLER_11_18
*437 FILLER_11_191
*438 FILLER_11_194
*439 FILLER_11_197
*440 FILLER_11_200
*441 FILLER_11_21
*442 FILLER_11_225
*443 FILLER_11_228
*444 FILLER_11_231
*445 FILLER_11_234
*446 FILLER_11_237
*447 FILLER_11_24
*448 FILLER_11_240
*449 FILLER_11_251
*450 FILLER_11_254
*451 FILLER_11_257
*452 FILLER_11_27
*453 FILLER_11_273
*454 FILLER_11_276
*455 FILLER_11_279
*456 FILLER_11_281
*457 FILLER_11_284
*458 FILLER_11_287
*459 FILLER_11_290
*460 FILLER_11_293
*461 FILLER_11_296
*462 FILLER_11_299
*463 FILLER_11_3
*464 FILLER_11_30
*465 FILLER_11_302
*466 FILLER_11_305
*467 FILLER_11_308
*468 FILLER_11_311
*469 FILLER_11_314
*470 FILLER_11_317
*471 FILLER_11_322
*472 FILLER_11_325
*473 FILLER_11_328
*474 FILLER_11_33
*475 FILLER_11_331
*476 FILLER_11_36
*477 FILLER_11_39
*478 FILLER_11_42
*479 FILLER_11_45
*480 FILLER_11_48
*481 FILLER_11_51
*482 FILLER_11_54
*483 FILLER_11_57
*484 FILLER_11_6
*485 FILLER_11_60
*486 FILLER_11_63
*487 FILLER_11_66
*488 FILLER_11_69
*489 FILLER_11_76
*490 FILLER_11_9
*491 FILLER_11_99
*492 FILLER_12_113
*493 FILLER_12_116
*494 FILLER_12_119
*495 FILLER_12_12
*496 FILLER_12_122
*497 FILLER_12_137
*498 FILLER_12_15
*499 FILLER_12_161
*500 FILLER_12_173
*501 FILLER_12_176
*502 FILLER_12_18
*503 FILLER_12_185
*504 FILLER_12_188
*505 FILLER_12_191
*506 FILLER_12_194
*507 FILLER_12_197
*508 FILLER_12_21
*509 FILLER_12_229
*510 FILLER_12_232
*511 FILLER_12_235
*512 FILLER_12_238
*513 FILLER_12_24
*514 FILLER_12_241
*515 FILLER_12_248
*516 FILLER_12_251
*517 FILLER_12_253
*518 FILLER_12_256
*519 FILLER_12_259
*520 FILLER_12_265
*521 FILLER_12_268
*522 FILLER_12_27
*523 FILLER_12_271
*524 FILLER_12_285
*525 FILLER_12_29
*526 FILLER_12_292
*527 FILLER_12_295
*528 FILLER_12_298
*529 FILLER_12_3
*530 FILLER_12_301
*531 FILLER_12_304
*532 FILLER_12_307
*533 FILLER_12_309
*534 FILLER_12_32
*535 FILLER_12_320
*536 FILLER_12_329
*537 FILLER_12_35
*538 FILLER_12_38
*539 FILLER_12_41
*540 FILLER_12_44
*541 FILLER_12_47
*542 FILLER_12_50
*543 FILLER_12_53
*544 FILLER_12_56
*545 FILLER_12_6
*546 FILLER_12_82
*547 FILLER_12_85
*548 FILLER_12_88
*549 FILLER_12_9
*550 FILLER_13_100
*551 FILLER_13_103
*552 FILLER_13_106
*553 FILLER_13_109
*554 FILLER_13_12
*555 FILLER_13_120
*556 FILLER_13_123
*557 FILLER_13_136
*558 FILLER_13_139
*559 FILLER_13_15
*560 FILLER_13_156
*561 FILLER_13_159
*562 FILLER_13_162
*563 FILLER_13_165
*564 FILLER_13_18
*565 FILLER_13_201
*566 FILLER_13_21
*567 FILLER_13_210
*568 FILLER_13_221
*569 FILLER_13_225
*570 FILLER_13_228
*571 FILLER_13_231
*572 FILLER_13_234
*573 FILLER_13_237
*574 FILLER_13_24
*575 FILLER_13_240
*576 FILLER_13_27
*577 FILLER_13_279
*578 FILLER_13_3
*579 FILLER_13_30
*580 FILLER_13_303
*581 FILLER_13_306
*582 FILLER_13_33
*583 FILLER_13_36
*584 FILLER_13_39
*585 FILLER_13_42
*586 FILLER_13_45
*587 FILLER_13_48
*588 FILLER_13_51
*589 FILLER_13_54
*590 FILLER_13_57
*591 FILLER_13_6
*592 FILLER_13_60
*593 FILLER_13_63
*594 FILLER_13_66
*595 FILLER_13_69
*596 FILLER_13_72
*597 FILLER_13_75
*598 FILLER_13_78
*599 FILLER_13_81
*600 FILLER_13_84
*601 FILLER_13_87
*602 FILLER_13_9
*603 FILLER_13_90
*604 FILLER_14_106
*605 FILLER_14_109
*606 FILLER_14_114
*607 FILLER_14_12
*608 FILLER_14_137
*609 FILLER_14_15
*610 FILLER_14_155
*611 FILLER_14_158
*612 FILLER_14_161
*613 FILLER_14_169
*614 FILLER_14_18
*615 FILLER_14_181
*616 FILLER_14_195
*617 FILLER_14_21
*618 FILLER_14_218
*619 FILLER_14_221
*620 FILLER_14_224
*621 FILLER_14_235
*622 FILLER_14_238
*623 FILLER_14_24
*624 FILLER_14_245
*625 FILLER_14_248
*626 FILLER_14_251
*627 FILLER_14_253
*628 FILLER_14_268
*629 FILLER_14_27
*630 FILLER_14_29
*631 FILLER_14_3
*632 FILLER_14_300
*633 FILLER_14_309
*634 FILLER_14_312
*635 FILLER_14_32
*636 FILLER_14_324
*637 FILLER_14_327
*638 FILLER_14_35
*639 FILLER_14_38
*640 FILLER_14_41
*641 FILLER_14_44
*642 FILLER_14_47
*643 FILLER_14_50
*644 FILLER_14_53
*645 FILLER_14_56
*646 FILLER_14_59
*647 FILLER_14_6
*648 FILLER_14_62
*649 FILLER_14_65
*650 FILLER_14_68
*651 FILLER_14_71
*652 FILLER_14_74
*653 FILLER_14_77
*654 FILLER_14_80
*655 FILLER_14_83
*656 FILLER_14_9
*657 FILLER_15_106
*658 FILLER_15_12
*659 FILLER_15_126
*660 FILLER_15_129
*661 FILLER_15_15
*662 FILLER_15_156
*663 FILLER_15_159
*664 FILLER_15_162
*665 FILLER_15_18
*666 FILLER_15_184
*667 FILLER_15_187
*668 FILLER_15_209
*669 FILLER_15_21
*670 FILLER_15_212
*671 FILLER_15_24
*672 FILLER_15_260
*673 FILLER_15_263
*674 FILLER_15_266
*675 FILLER_15_269
*676 FILLER_15_27
*677 FILLER_15_272
*678 FILLER_15_275
*679 FILLER_15_278
*680 FILLER_15_3
*681 FILLER_15_30
*682 FILLER_15_305
*683 FILLER_15_33
*684 FILLER_15_331
*685 FILLER_15_36
*686 FILLER_15_39
*687 FILLER_15_42
*688 FILLER_15_45
*689 FILLER_15_48
*690 FILLER_15_51
*691 FILLER_15_54
*692 FILLER_15_57
*693 FILLER_15_6
*694 FILLER_15_60
*695 FILLER_15_63
*696 FILLER_15_66
*697 FILLER_15_9
*698 FILLER_15_92
*699 FILLER_15_95
*700 FILLER_16_100
*701 FILLER_16_103
*702 FILLER_16_106
*703 FILLER_16_12
*704 FILLER_16_124
*705 FILLER_16_127
*706 FILLER_16_15
*707 FILLER_16_153
*708 FILLER_16_156
*709 FILLER_16_168
*710 FILLER_16_176
*711 FILLER_16_18
*712 FILLER_16_188
*713 FILLER_16_21
*714 FILLER_16_237
*715 FILLER_16_24
*716 FILLER_16_240
*717 FILLER_16_243
*718 FILLER_16_246
*719 FILLER_16_249
*720 FILLER_16_253
*721 FILLER_16_256
*722 FILLER_16_262
*723 FILLER_16_27
*724 FILLER_16_29
*725 FILLER_16_3
*726 FILLER_16_301
*727 FILLER_16_304
*728 FILLER_16_307
*729 FILLER_16_309
*730 FILLER_16_312
*731 FILLER_16_315
*732 FILLER_16_318
*733 FILLER_16_32
*734 FILLER_16_325
*735 FILLER_16_328
*736 FILLER_16_331
*737 FILLER_16_35
*738 FILLER_16_38
*739 FILLER_16_41
*740 FILLER_16_44
*741 FILLER_16_47
*742 FILLER_16_50
*743 FILLER_16_53
*744 FILLER_16_56
*745 FILLER_16_59
*746 FILLER_16_6
*747 FILLER_16_62
*748 FILLER_16_65
*749 FILLER_16_68
*750 FILLER_16_71
*751 FILLER_16_74
*752 FILLER_16_9
*753 FILLER_16_97
*754 FILLER_17_113
*755 FILLER_17_12
*756 FILLER_17_148
*757 FILLER_17_15
*758 FILLER_17_152
*759 FILLER_17_155
*760 FILLER_17_158
*761 FILLER_17_164
*762 FILLER_17_167
*763 FILLER_17_172
*764 FILLER_17_18
*765 FILLER_17_186
*766 FILLER_17_196
*767 FILLER_17_208
*768 FILLER_17_21
*769 FILLER_17_211
*770 FILLER_17_214
*771 FILLER_17_217
*772 FILLER_17_220
*773 FILLER_17_223
*774 FILLER_17_225
*775 FILLER_17_237
*776 FILLER_17_24
*777 FILLER_17_240
*778 FILLER_17_243
*779 FILLER_17_246
*780 FILLER_17_249
*781 FILLER_17_252
*782 FILLER_17_255
*783 FILLER_17_261
*784 FILLER_17_27
*785 FILLER_17_279
*786 FILLER_17_281
*787 FILLER_17_291
*788 FILLER_17_294
*789 FILLER_17_3
*790 FILLER_17_30
*791 FILLER_17_303
*792 FILLER_17_306
*793 FILLER_17_33
*794 FILLER_17_36
*795 FILLER_17_39
*796 FILLER_17_42
*797 FILLER_17_45
*798 FILLER_17_48
*799 FILLER_17_51
*800 FILLER_17_54
*801 FILLER_17_57
*802 FILLER_17_6
*803 FILLER_17_60
*804 FILLER_17_63
*805 FILLER_17_66
*806 FILLER_17_9
*807 FILLER_18_103
*808 FILLER_18_12
*809 FILLER_18_127
*810 FILLER_18_130
*811 FILLER_18_15
*812 FILLER_18_161
*813 FILLER_18_18
*814 FILLER_18_203
*815 FILLER_18_206
*816 FILLER_18_209
*817 FILLER_18_21
*818 FILLER_18_212
*819 FILLER_18_215
*820 FILLER_18_24
*821 FILLER_18_248
*822 FILLER_18_251
*823 FILLER_18_253
*824 FILLER_18_256
*825 FILLER_18_259
*826 FILLER_18_262
*827 FILLER_18_265
*828 FILLER_18_268
*829 FILLER_18_27
*830 FILLER_18_271
*831 FILLER_18_287
*832 FILLER_18_29
*833 FILLER_18_290
*834 FILLER_18_293
*835 FILLER_18_296
*836 FILLER_18_299
*837 FILLER_18_3
*838 FILLER_18_302
*839 FILLER_18_305
*840 FILLER_18_32
*841 FILLER_18_35
*842 FILLER_18_38
*843 FILLER_18_41
*844 FILLER_18_44
*845 FILLER_18_47
*846 FILLER_18_50
*847 FILLER_18_53
*848 FILLER_18_56
*849 FILLER_18_59
*850 FILLER_18_6
*851 FILLER_18_62
*852 FILLER_18_65
*853 FILLER_18_68
*854 FILLER_18_71
*855 FILLER_18_74
*856 FILLER_18_77
*857 FILLER_18_80
*858 FILLER_18_83
*859 FILLER_18_9
*860 FILLER_18_94
*861 FILLER_19_102
*862 FILLER_19_105
*863 FILLER_19_108
*864 FILLER_19_111
*865 FILLER_19_12
*866 FILLER_19_124
*867 FILLER_19_127
*868 FILLER_19_15
*869 FILLER_19_151
*870 FILLER_19_154
*871 FILLER_19_157
*872 FILLER_19_160
*873 FILLER_19_163
*874 FILLER_19_166
*875 FILLER_19_173
*876 FILLER_19_176
*877 FILLER_19_179
*878 FILLER_19_18
*879 FILLER_19_206
*880 FILLER_19_209
*881 FILLER_19_21
*882 FILLER_19_212
*883 FILLER_19_24
*884 FILLER_19_246
*885 FILLER_19_249
*886 FILLER_19_252
*887 FILLER_19_255
*888 FILLER_19_258
*889 FILLER_19_261
*890 FILLER_19_264
*891 FILLER_19_267
*892 FILLER_19_27
*893 FILLER_19_270
*894 FILLER_19_273
*895 FILLER_19_276
*896 FILLER_19_279
*897 FILLER_19_281
*898 FILLER_19_284
*899 FILLER_19_287
*900 FILLER_19_290
*901 FILLER_19_293
*902 FILLER_19_296
*903 FILLER_19_299
*904 FILLER_19_3
*905 FILLER_19_30
*906 FILLER_19_302
*907 FILLER_19_305
*908 FILLER_19_308
*909 FILLER_19_311
*910 FILLER_19_319
*911 FILLER_19_322
*912 FILLER_19_325
*913 FILLER_19_328
*914 FILLER_19_33
*915 FILLER_19_331
*916 FILLER_19_36
*917 FILLER_19_39
*918 FILLER_19_42
*919 FILLER_19_45
*920 FILLER_19_48
*921 FILLER_19_51
*922 FILLER_19_54
*923 FILLER_19_57
*924 FILLER_19_6
*925 FILLER_19_60
*926 FILLER_19_63
*927 FILLER_19_66
*928 FILLER_19_69
*929 FILLER_19_72
*930 FILLER_19_75
*931 FILLER_19_78
*932 FILLER_19_81
*933 FILLER_19_84
*934 FILLER_19_87
*935 FILLER_19_9
*936 FILLER_19_90
*937 FILLER_19_93
*938 FILLER_19_96
*939 FILLER_19_99
*940 FILLER_1_102
*941 FILLER_1_105
*942 FILLER_1_108
*943 FILLER_1_111
*944 FILLER_1_113
*945 FILLER_1_116
*946 FILLER_1_119
*947 FILLER_1_12
*948 FILLER_1_122
*949 FILLER_1_125
*950 FILLER_1_128
*951 FILLER_1_131
*952 FILLER_1_134
*953 FILLER_1_137
*954 FILLER_1_140
*955 FILLER_1_143
*956 FILLER_1_146
*957 FILLER_1_149
*958 FILLER_1_15
*959 FILLER_1_152
*960 FILLER_1_155
*961 FILLER_1_158
*962 FILLER_1_161
*963 FILLER_1_164
*964 FILLER_1_167
*965 FILLER_1_169
*966 FILLER_1_172
*967 FILLER_1_175
*968 FILLER_1_178
*969 FILLER_1_18
*970 FILLER_1_181
*971 FILLER_1_184
*972 FILLER_1_187
*973 FILLER_1_190
*974 FILLER_1_193
*975 FILLER_1_196
*976 FILLER_1_199
*977 FILLER_1_202
*978 FILLER_1_205
*979 FILLER_1_208
*980 FILLER_1_21
*981 FILLER_1_211
*982 FILLER_1_214
*983 FILLER_1_217
*984 FILLER_1_220
*985 FILLER_1_223
*986 FILLER_1_225
*987 FILLER_1_228
*988 FILLER_1_231
*989 FILLER_1_234
*990 FILLER_1_237
*991 FILLER_1_24
*992 FILLER_1_240
*993 FILLER_1_243
*994 FILLER_1_246
*995 FILLER_1_249
*996 FILLER_1_252
*997 FILLER_1_255
*998 FILLER_1_258
*999 FILLER_1_261
*1000 FILLER_1_264
*1001 FILLER_1_267
*1002 FILLER_1_27
*1003 FILLER_1_270
*1004 FILLER_1_273
*1005 FILLER_1_276
*1006 FILLER_1_279
*1007 FILLER_1_281
*1008 FILLER_1_284
*1009 FILLER_1_287
*1010 FILLER_1_290
*1011 FILLER_1_293
*1012 FILLER_1_296
*1013 FILLER_1_299
*1014 FILLER_1_3
*1015 FILLER_1_30
*1016 FILLER_1_302
*1017 FILLER_1_305
*1018 FILLER_1_308
*1019 FILLER_1_311
*1020 FILLER_1_314
*1021 FILLER_1_317
*1022 FILLER_1_320
*1023 FILLER_1_323
*1024 FILLER_1_326
*1025 FILLER_1_329
*1026 FILLER_1_33
*1027 FILLER_1_36
*1028 FILLER_1_39
*1029 FILLER_1_42
*1030 FILLER_1_45
*1031 FILLER_1_48
*1032 FILLER_1_51
*1033 FILLER_1_54
*1034 FILLER_1_57
*1035 FILLER_1_6
*1036 FILLER_1_60
*1037 FILLER_1_63
*1038 FILLER_1_66
*1039 FILLER_1_69
*1040 FILLER_1_72
*1041 FILLER_1_75
*1042 FILLER_1_78
*1043 FILLER_1_81
*1044 FILLER_1_84
*1045 FILLER_1_87
*1046 FILLER_1_9
*1047 FILLER_1_90
*1048 FILLER_1_93
*1049 FILLER_1_96
*1050 FILLER_1_99
*1051 FILLER_20_100
*1052 FILLER_20_103
*1053 FILLER_20_106
*1054 FILLER_20_109
*1055 FILLER_20_112
*1056 FILLER_20_115
*1057 FILLER_20_118
*1058 FILLER_20_12
*1059 FILLER_20_121
*1060 FILLER_20_124
*1061 FILLER_20_127
*1062 FILLER_20_130
*1063 FILLER_20_133
*1064 FILLER_20_141
*1065 FILLER_20_144
*1066 FILLER_20_147
*1067 FILLER_20_15
*1068 FILLER_20_150
*1069 FILLER_20_153
*1070 FILLER_20_156
*1071 FILLER_20_159
*1072 FILLER_20_162
*1073 FILLER_20_165
*1074 FILLER_20_168
*1075 FILLER_20_171
*1076 FILLER_20_174
*1077 FILLER_20_177
*1078 FILLER_20_18
*1079 FILLER_20_180
*1080 FILLER_20_183
*1081 FILLER_20_189
*1082 FILLER_20_192
*1083 FILLER_20_195
*1084 FILLER_20_197
*1085 FILLER_20_200
*1086 FILLER_20_203
*1087 FILLER_20_206
*1088 FILLER_20_209
*1089 FILLER_20_21
*1090 FILLER_20_212
*1091 FILLER_20_215
*1092 FILLER_20_218
*1093 FILLER_20_24
*1094 FILLER_20_241
*1095 FILLER_20_244
*1096 FILLER_20_247
*1097 FILLER_20_250
*1098 FILLER_20_253
*1099 FILLER_20_256
*1100 FILLER_20_259
*1101 FILLER_20_262
*1102 FILLER_20_265
*1103 FILLER_20_268
*1104 FILLER_20_27
*1105 FILLER_20_271
*1106 FILLER_20_274
*1107 FILLER_20_277
*1108 FILLER_20_280
*1109 FILLER_20_283
*1110 FILLER_20_286
*1111 FILLER_20_289
*1112 FILLER_20_29
*1113 FILLER_20_292
*1114 FILLER_20_295
*1115 FILLER_20_298
*1116 FILLER_20_301
*1117 FILLER_20_304
*1118 FILLER_20_307
*1119 FILLER_20_309
*1120 FILLER_20_312
*1121 FILLER_20_315
*1122 FILLER_20_318
*1123 FILLER_20_32
*1124 FILLER_20_321
*1125 FILLER_20_324
*1126 FILLER_20_327
*1127 FILLER_20_330
*1128 FILLER_20_35
*1129 FILLER_20_38
*1130 FILLER_20_41
*1131 FILLER_20_44
*1132 FILLER_20_47
*1133 FILLER_20_50
*1134 FILLER_20_53
*1135 FILLER_20_56
*1136 FILLER_20_59
*1137 FILLER_20_6
*1138 FILLER_20_62
*1139 FILLER_20_65
*1140 FILLER_20_68
*1141 FILLER_20_71
*1142 FILLER_20_74
*1143 FILLER_20_77
*1144 FILLER_20_80
*1145 FILLER_20_83
*1146 FILLER_20_85
*1147 FILLER_20_88
*1148 FILLER_20_9
*1149 FILLER_20_91
*1150 FILLER_20_94
*1151 FILLER_20_97
*1152 FILLER_21_102
*1153 FILLER_21_105
*1154 FILLER_21_108
*1155 FILLER_21_111
*1156 FILLER_21_113
*1157 FILLER_21_116
*1158 FILLER_21_119
*1159 FILLER_21_12
*1160 FILLER_21_122
*1161 FILLER_21_125
*1162 FILLER_21_128
*1163 FILLER_21_131
*1164 FILLER_21_134
*1165 FILLER_21_137
*1166 FILLER_21_140
*1167 FILLER_21_143
*1168 FILLER_21_146
*1169 FILLER_21_149
*1170 FILLER_21_15
*1171 FILLER_21_152
*1172 FILLER_21_155
*1173 FILLER_21_158
*1174 FILLER_21_161
*1175 FILLER_21_164
*1176 FILLER_21_167
*1177 FILLER_21_169
*1178 FILLER_21_172
*1179 FILLER_21_175
*1180 FILLER_21_178
*1181 FILLER_21_18
*1182 FILLER_21_181
*1183 FILLER_21_184
*1184 FILLER_21_187
*1185 FILLER_21_190
*1186 FILLER_21_193
*1187 FILLER_21_196
*1188 FILLER_21_199
*1189 FILLER_21_202
*1190 FILLER_21_205
*1191 FILLER_21_208
*1192 FILLER_21_21
*1193 FILLER_21_211
*1194 FILLER_21_214
*1195 FILLER_21_217
*1196 FILLER_21_220
*1197 FILLER_21_223
*1198 FILLER_21_225
*1199 FILLER_21_228
*1200 FILLER_21_231
*1201 FILLER_21_234
*1202 FILLER_21_237
*1203 FILLER_21_24
*1204 FILLER_21_240
*1205 FILLER_21_243
*1206 FILLER_21_246
*1207 FILLER_21_249
*1208 FILLER_21_252
*1209 FILLER_21_255
*1210 FILLER_21_258
*1211 FILLER_21_261
*1212 FILLER_21_264
*1213 FILLER_21_267
*1214 FILLER_21_27
*1215 FILLER_21_270
*1216 FILLER_21_273
*1217 FILLER_21_276
*1218 FILLER_21_279
*1219 FILLER_21_281
*1220 FILLER_21_284
*1221 FILLER_21_287
*1222 FILLER_21_290
*1223 FILLER_21_293
*1224 FILLER_21_296
*1225 FILLER_21_299
*1226 FILLER_21_3
*1227 FILLER_21_30
*1228 FILLER_21_302
*1229 FILLER_21_305
*1230 FILLER_21_308
*1231 FILLER_21_311
*1232 FILLER_21_314
*1233 FILLER_21_317
*1234 FILLER_21_320
*1235 FILLER_21_323
*1236 FILLER_21_326
*1237 FILLER_21_329
*1238 FILLER_21_33
*1239 FILLER_21_36
*1240 FILLER_21_39
*1241 FILLER_21_42
*1242 FILLER_21_45
*1243 FILLER_21_48
*1244 FILLER_21_51
*1245 FILLER_21_54
*1246 FILLER_21_57
*1247 FILLER_21_6
*1248 FILLER_21_60
*1249 FILLER_21_63
*1250 FILLER_21_66
*1251 FILLER_21_69
*1252 FILLER_21_72
*1253 FILLER_21_75
*1254 FILLER_21_78
*1255 FILLER_21_81
*1256 FILLER_21_84
*1257 FILLER_21_87
*1258 FILLER_21_9
*1259 FILLER_21_90
*1260 FILLER_21_93
*1261 FILLER_21_96
*1262 FILLER_21_99
*1263 FILLER_22_100
*1264 FILLER_22_103
*1265 FILLER_22_106
*1266 FILLER_22_109
*1267 FILLER_22_112
*1268 FILLER_22_115
*1269 FILLER_22_118
*1270 FILLER_22_12
*1271 FILLER_22_121
*1272 FILLER_22_124
*1273 FILLER_22_127
*1274 FILLER_22_130
*1275 FILLER_22_133
*1276 FILLER_22_136
*1277 FILLER_22_139
*1278 FILLER_22_141
*1279 FILLER_22_144
*1280 FILLER_22_147
*1281 FILLER_22_15
*1282 FILLER_22_150
*1283 FILLER_22_153
*1284 FILLER_22_156
*1285 FILLER_22_159
*1286 FILLER_22_162
*1287 FILLER_22_165
*1288 FILLER_22_168
*1289 FILLER_22_171
*1290 FILLER_22_174
*1291 FILLER_22_177
*1292 FILLER_22_18
*1293 FILLER_22_180
*1294 FILLER_22_183
*1295 FILLER_22_186
*1296 FILLER_22_189
*1297 FILLER_22_192
*1298 FILLER_22_195
*1299 FILLER_22_197
*1300 FILLER_22_200
*1301 FILLER_22_203
*1302 FILLER_22_206
*1303 FILLER_22_209
*1304 FILLER_22_21
*1305 FILLER_22_212
*1306 FILLER_22_215
*1307 FILLER_22_218
*1308 FILLER_22_221
*1309 FILLER_22_224
*1310 FILLER_22_227
*1311 FILLER_22_230
*1312 FILLER_22_233
*1313 FILLER_22_236
*1314 FILLER_22_239
*1315 FILLER_22_24
*1316 FILLER_22_242
*1317 FILLER_22_245
*1318 FILLER_22_248
*1319 FILLER_22_251
*1320 FILLER_22_253
*1321 FILLER_22_256
*1322 FILLER_22_259
*1323 FILLER_22_262
*1324 FILLER_22_265
*1325 FILLER_22_268
*1326 FILLER_22_27
*1327 FILLER_22_271
*1328 FILLER_22_274
*1329 FILLER_22_277
*1330 FILLER_22_280
*1331 FILLER_22_283
*1332 FILLER_22_286
*1333 FILLER_22_289
*1334 FILLER_22_29
*1335 FILLER_22_292
*1336 FILLER_22_295
*1337 FILLER_22_298
*1338 FILLER_22_3
*1339 FILLER_22_301
*1340 FILLER_22_304
*1341 FILLER_22_307
*1342 FILLER_22_309
*1343 FILLER_22_312
*1344 FILLER_22_315
*1345 FILLER_22_318
*1346 FILLER_22_32
*1347 FILLER_22_321
*1348 FILLER_22_324
*1349 FILLER_22_327
*1350 FILLER_22_330
*1351 FILLER_22_35
*1352 FILLER_22_38
*1353 FILLER_22_41
*1354 FILLER_22_44
*1355 FILLER_22_47
*1356 FILLER_22_50
*1357 FILLER_22_53
*1358 FILLER_22_56
*1359 FILLER_22_59
*1360 FILLER_22_6
*1361 FILLER_22_62
*1362 FILLER_22_65
*1363 FILLER_22_68
*1364 FILLER_22_71
*1365 FILLER_22_74
*1366 FILLER_22_77
*1367 FILLER_22_80
*1368 FILLER_22_83
*1369 FILLER_22_85
*1370 FILLER_22_88
*1371 FILLER_22_9
*1372 FILLER_22_91
*1373 FILLER_22_94
*1374 FILLER_22_97
*1375 FILLER_23_102
*1376 FILLER_23_105
*1377 FILLER_23_108
*1378 FILLER_23_111
*1379 FILLER_23_113
*1380 FILLER_23_116
*1381 FILLER_23_119
*1382 FILLER_23_12
*1383 FILLER_23_122
*1384 FILLER_23_125
*1385 FILLER_23_128
*1386 FILLER_23_131
*1387 FILLER_23_134
*1388 FILLER_23_137
*1389 FILLER_23_140
*1390 FILLER_23_143
*1391 FILLER_23_146
*1392 FILLER_23_149
*1393 FILLER_23_15
*1394 FILLER_23_152
*1395 FILLER_23_155
*1396 FILLER_23_158
*1397 FILLER_23_161
*1398 FILLER_23_164
*1399 FILLER_23_167
*1400 FILLER_23_169
*1401 FILLER_23_172
*1402 FILLER_23_175
*1403 FILLER_23_178
*1404 FILLER_23_18
*1405 FILLER_23_181
*1406 FILLER_23_184
*1407 FILLER_23_187
*1408 FILLER_23_190
*1409 FILLER_23_193
*1410 FILLER_23_196
*1411 FILLER_23_199
*1412 FILLER_23_202
*1413 FILLER_23_205
*1414 FILLER_23_208
*1415 FILLER_23_21
*1416 FILLER_23_211
*1417 FILLER_23_214
*1418 FILLER_23_217
*1419 FILLER_23_220
*1420 FILLER_23_223
*1421 FILLER_23_225
*1422 FILLER_23_228
*1423 FILLER_23_231
*1424 FILLER_23_234
*1425 FILLER_23_237
*1426 FILLER_23_24
*1427 FILLER_23_240
*1428 FILLER_23_243
*1429 FILLER_23_246
*1430 FILLER_23_249
*1431 FILLER_23_252
*1432 FILLER_23_255
*1433 FILLER_23_258
*1434 FILLER_23_261
*1435 FILLER_23_264
*1436 FILLER_23_267
*1437 FILLER_23_27
*1438 FILLER_23_270
*1439 FILLER_23_273
*1440 FILLER_23_276
*1441 FILLER_23_279
*1442 FILLER_23_281
*1443 FILLER_23_284
*1444 FILLER_23_287
*1445 FILLER_23_290
*1446 FILLER_23_293
*1447 FILLER_23_296
*1448 FILLER_23_299
*1449 FILLER_23_3
*1450 FILLER_23_30
*1451 FILLER_23_302
*1452 FILLER_23_305
*1453 FILLER_23_308
*1454 FILLER_23_311
*1455 FILLER_23_314
*1456 FILLER_23_317
*1457 FILLER_23_320
*1458 FILLER_23_323
*1459 FILLER_23_326
*1460 FILLER_23_329
*1461 FILLER_23_33
*1462 FILLER_23_36
*1463 FILLER_23_39
*1464 FILLER_23_42
*1465 FILLER_23_45
*1466 FILLER_23_48
*1467 FILLER_23_51
*1468 FILLER_23_54
*1469 FILLER_23_57
*1470 FILLER_23_6
*1471 FILLER_23_60
*1472 FILLER_23_63
*1473 FILLER_23_66
*1474 FILLER_23_69
*1475 FILLER_23_72
*1476 FILLER_23_75
*1477 FILLER_23_78
*1478 FILLER_23_81
*1479 FILLER_23_84
*1480 FILLER_23_87
*1481 FILLER_23_9
*1482 FILLER_23_90
*1483 FILLER_23_93
*1484 FILLER_23_96
*1485 FILLER_23_99
*1486 FILLER_24_100
*1487 FILLER_24_103
*1488 FILLER_24_106
*1489 FILLER_24_109
*1490 FILLER_24_112
*1491 FILLER_24_115
*1492 FILLER_24_118
*1493 FILLER_24_12
*1494 FILLER_24_121
*1495 FILLER_24_124
*1496 FILLER_24_127
*1497 FILLER_24_130
*1498 FILLER_24_133
*1499 FILLER_24_136
*1500 FILLER_24_139
*1501 FILLER_24_141
*1502 FILLER_24_144
*1503 FILLER_24_147
*1504 FILLER_24_15
*1505 FILLER_24_150
*1506 FILLER_24_153
*1507 FILLER_24_156
*1508 FILLER_24_159
*1509 FILLER_24_162
*1510 FILLER_24_165
*1511 FILLER_24_168
*1512 FILLER_24_171
*1513 FILLER_24_174
*1514 FILLER_24_177
*1515 FILLER_24_18
*1516 FILLER_24_180
*1517 FILLER_24_183
*1518 FILLER_24_186
*1519 FILLER_24_189
*1520 FILLER_24_192
*1521 FILLER_24_195
*1522 FILLER_24_197
*1523 FILLER_24_200
*1524 FILLER_24_203
*1525 FILLER_24_206
*1526 FILLER_24_209
*1527 FILLER_24_21
*1528 FILLER_24_212
*1529 FILLER_24_215
*1530 FILLER_24_218
*1531 FILLER_24_221
*1532 FILLER_24_224
*1533 FILLER_24_227
*1534 FILLER_24_230
*1535 FILLER_24_233
*1536 FILLER_24_236
*1537 FILLER_24_239
*1538 FILLER_24_24
*1539 FILLER_24_242
*1540 FILLER_24_245
*1541 FILLER_24_248
*1542 FILLER_24_251
*1543 FILLER_24_253
*1544 FILLER_24_256
*1545 FILLER_24_259
*1546 FILLER_24_262
*1547 FILLER_24_265
*1548 FILLER_24_268
*1549 FILLER_24_27
*1550 FILLER_24_271
*1551 FILLER_24_274
*1552 FILLER_24_277
*1553 FILLER_24_280
*1554 FILLER_24_283
*1555 FILLER_24_286
*1556 FILLER_24_289
*1557 FILLER_24_29
*1558 FILLER_24_292
*1559 FILLER_24_295
*1560 FILLER_24_298
*1561 FILLER_24_3
*1562 FILLER_24_301
*1563 FILLER_24_304
*1564 FILLER_24_307
*1565 FILLER_24_309
*1566 FILLER_24_312
*1567 FILLER_24_315
*1568 FILLER_24_318
*1569 FILLER_24_32
*1570 FILLER_24_321
*1571 FILLER_24_324
*1572 FILLER_24_327
*1573 FILLER_24_330
*1574 FILLER_24_35
*1575 FILLER_24_38
*1576 FILLER_24_41
*1577 FILLER_24_44
*1578 FILLER_24_47
*1579 FILLER_24_50
*1580 FILLER_24_53
*1581 FILLER_24_56
*1582 FILLER_24_59
*1583 FILLER_24_6
*1584 FILLER_24_62
*1585 FILLER_24_65
*1586 FILLER_24_68
*1587 FILLER_24_71
*1588 FILLER_24_74
*1589 FILLER_24_77
*1590 FILLER_24_80
*1591 FILLER_24_83
*1592 FILLER_24_85
*1593 FILLER_24_88
*1594 FILLER_24_9
*1595 FILLER_24_91
*1596 FILLER_24_94
*1597 FILLER_24_97
*1598 FILLER_25_102
*1599 FILLER_25_105
*1600 FILLER_25_108
*1601 FILLER_25_111
*1602 FILLER_25_113
*1603 FILLER_25_116
*1604 FILLER_25_119
*1605 FILLER_25_12
*1606 FILLER_25_122
*1607 FILLER_25_125
*1608 FILLER_25_128
*1609 FILLER_25_131
*1610 FILLER_25_134
*1611 FILLER_25_137
*1612 FILLER_25_140
*1613 FILLER_25_143
*1614 FILLER_25_146
*1615 FILLER_25_149
*1616 FILLER_25_15
*1617 FILLER_25_152
*1618 FILLER_25_155
*1619 FILLER_25_158
*1620 FILLER_25_161
*1621 FILLER_25_164
*1622 FILLER_25_167
*1623 FILLER_25_169
*1624 FILLER_25_172
*1625 FILLER_25_175
*1626 FILLER_25_178
*1627 FILLER_25_18
*1628 FILLER_25_181
*1629 FILLER_25_184
*1630 FILLER_25_187
*1631 FILLER_25_190
*1632 FILLER_25_193
*1633 FILLER_25_196
*1634 FILLER_25_199
*1635 FILLER_25_202
*1636 FILLER_25_205
*1637 FILLER_25_208
*1638 FILLER_25_21
*1639 FILLER_25_211
*1640 FILLER_25_214
*1641 FILLER_25_217
*1642 FILLER_25_220
*1643 FILLER_25_223
*1644 FILLER_25_225
*1645 FILLER_25_228
*1646 FILLER_25_231
*1647 FILLER_25_234
*1648 FILLER_25_237
*1649 FILLER_25_24
*1650 FILLER_25_240
*1651 FILLER_25_243
*1652 FILLER_25_246
*1653 FILLER_25_249
*1654 FILLER_25_252
*1655 FILLER_25_255
*1656 FILLER_25_258
*1657 FILLER_25_261
*1658 FILLER_25_264
*1659 FILLER_25_267
*1660 FILLER_25_27